Version 4
SHEET 1 1992 680
WIRE -208 32 -352 32
WIRE -112 32 -208 32
WIRE 80 32 -16 32
WIRE 256 32 256 -16
WIRE 256 32 80 32
WIRE 864 32 480 32
WIRE -352 64 -352 32
WIRE -208 80 -208 32
WIRE 80 80 80 32
WIRE 944 96 944 32
WIRE -96 128 -96 80
WIRE -64 128 -96 128
WIRE -208 160 -208 144
WIRE -64 160 -64 128
WIRE -64 160 -208 160
WIRE 80 160 80 144
WIRE 80 160 -64 160
WIRE 256 160 256 112
WIRE -64 224 -64 160
WIRE 256 272 256 240
WIRE 288 272 256 272
WIRE 480 272 480 112
WIRE 944 272 944 176
WIRE 944 272 480 272
WIRE 256 304 256 272
WIRE -352 384 -352 144
WIRE -64 384 -64 304
WIRE -64 384 -352 384
WIRE 176 384 -64 384
WIRE 256 384 176 384
FLAG 288 272 EMF
FLAG 256 -16 Supply
FLAG 480 272 0
FLAG 176 384 0
FLAG -64 128 gate
SYMBOL voltage -352 48 R0
WINDOW 3 41 56 Left 2
WINDOW 123 0 0 Left 0
WINDOW 39 0 0 Left 0
SYMATTR Value 12
SYMATTR InstName V1
SYMBOL res 240 16 R0
SYMATTR InstName Motor_DCR
SYMATTR Value 0.5
SYMBOL res 928 80 R0
SYMATTR InstName Internal_Loss
SYMATTR Value 1.4
SYMBOL bv 256 288 R0
SYMATTR InstName B1
SYMATTR Value V=-I(B2)
SYMBOL bv 480 16 R0
WINDOW 0 33 35 Left 2
SYMATTR InstName B2
SYMATTR Value V=I(B1)
SYMBOL ind 240 144 R0
SYMATTR InstName Motor_L
SYMATTR Value 1m
SYMBOL ind 848 48 R270
WINDOW 0 32 56 VTop 2
WINDOW 3 5 56 VBottom 2
SYMATTR InstName Inertia
SYMATTR Value 3m
SYMBOL cap 64 80 R0
SYMATTR InstName C1
SYMATTR Value 33n
SYMBOL cap -224 80 R0
SYMATTR InstName C2
SYMATTR Value 100n
SYMBOL res -80 208 R0
SYMATTR InstName R1
SYMATTR Value 10Meg
SYMBOL pmos -16 80 M270
SYMATTR InstName M1
SYMATTR Value RRS140P03
TEXT 16 -128 Left 2 ;Electrical Equivalent
TEXT 576 -80 Left 2 ;Mechanical Equivalent
TEXT 56 -88 Left 2 ;I = Current\nV = Voltage
TEXT 584 -32 Left 2 ;I = Rotational Speed\nV = Torque
TEXT -56 192 Left 2 ;Motor_DCR = Vin/I_initial
TEXT 448 328 Left 2 ;Internal_Loss = I_noload/(Vin(1-I_noload/I_initial))
TEXT -184 424 Left 2 !.tran 0 1.5 0 0.001 startup
