Version 4
SHEET 1 880 680
WIRE 192 -48 160 -48
WIRE 288 -48 224 -48
WIRE 192 -32 192 -48
WIRE 224 -32 224 -48
WIRE 96 64 -16 64
WIRE 112 64 96 64
WIRE 160 64 160 -48
WIRE 160 64 112 64
WIRE 208 64 208 32
WIRE 304 64 208 64
WIRE 336 64 304 64
WIRE 480 64 336 64
WIRE 112 80 112 64
WIRE 304 80 304 64
WIRE -16 112 -16 64
WIRE 288 112 288 -48
WIRE 288 112 208 112
WIRE 112 176 112 144
WIRE 208 176 208 112
WIRE 208 176 112 176
WIRE 304 176 304 144
WIRE 304 176 208 176
FLAG -16 192 0
FLAG 208 256 0
FLAG 480 144 0
FLAG 336 64 drain
FLAG 96 64 source
FLAG 208 112 gate
SYMBOL voltage -16 96 R0
WINDOW 123 0 0 Left 0
WINDOW 39 0 0 Left 0
SYMATTR InstName V1
SYMATTR Value 12
SYMBOL cap 96 80 R0
SYMATTR InstName C1
SYMATTR Value 100n
SYMBOL cap 288 80 R0
SYMATTR InstName C2
SYMATTR Value 33n
SYMBOL res 192 160 R0
SYMATTR InstName R1
SYMATTR Value 10Meg
SYMBOL res 464 48 R0
SYMATTR InstName R2
SYMATTR Value 1
SYMBOL irf9530 208 0 M270
WINDOW 3 79 -3 VTop 2
SYMATTR InstName U1
TEXT -48 280 Left 2 !.tran 0 3 0 0.001 startup
